Circuit: * C:\Users\Fouad\Google Drive\Projects\Digital_Clock\Button\debounce.asc

Direct Newton iteration for .op point succeeded.

Date: Tue Nov 11 22:44:33 2014
Total elapsed time: 0.072 seconds.

tnom = 27
temp = 27
method = modified trap
totiter = 2606
traniter = 2602
tranpoints = 1244
accept = 1202
rejected = 42
matrix size = 5
fillins = 0
solver = Normal
Matrix Compiler1: 114 bytes object code size  0.1/0.0/[0.0]
Matrix Compiler2: 281 bytes object code size  0.0/0.1/[0.0]


