Circuit: * C:\Users\Fouad\Google Drive\Projects\Digital_Clock\Power Supply\Power Supply v3.asc

Limiting rise time of source v1 to 0.05
Limiting fall time of source v1 to 0.05
Direct Newton iteration for .op point succeeded.

Date: Sat Nov 08 23:31:46 2014
Total elapsed time: 0.082 seconds.

tnom = 27
temp = 27
method = modified trap
totiter = 2211
traniter = 2193
tranpoints = 1074
accept = 1067
rejected = 7
matrix size = 7
fillins = 0
solver = Normal
Matrix Compiler1:      15 opcodes  0.2/[0.0]/0.1
Matrix Compiler2:      42 opcodes  0.1/[0.1]/0.2


