Circuit: * C:\Users\Fouad\Google Drive\Projects\Digital_Clock\Power Supply\Power Supply v2.asc

Limiting rise time of source v1 to 0.05
Limiting fall time of source v1 to 0.05
Direct Newton iteration for .op point succeeded.

Date: Mon Nov 10 23:08:00 2014
Total elapsed time: 0.267 seconds.

tnom = 27
temp = 27
method = modified trap
totiter = 4812
traniter = 4774
tranpoints = 1628
accept = 1437
rejected = 191
matrix size = 37
fillins = 56
solver = Normal
Matrix Compiler1: 7.78 KB object code size  4.0/2.0/[1.3]
Matrix Compiler2: off  [1.5]/1.8/2.0


