Circuit: * C:\Users\Fouad\Google Drive\Projects\Digital_Clock\Power Supply\Power Supply v1.asc

Limiting rise time of source v1 to 0.05
Limiting fall time of source v1 to 0.05
Direct Newton iteration for .op point succeeded.

Date: Sat Nov 08 23:14:49 2014
Total elapsed time: 0.067 seconds.

tnom = 27
temp = 27
method = modified trap
totiter = 2251
traniter = 2237
tranpoints = 1094
accept = 1084
rejected = 10
matrix size = 6
fillins = 0
solver = Normal
Matrix Compiler1: 200 bytes object code size  0.2/0.1/[0.1]
Matrix Compiler2: off  [0.1]/0.2/0.4


